powerflow/Codes/PF_Formulation/resultados_csv/15/300bus/barras.csv
caso,script,bus_id,vm_pu,va_rad,pd_pu,qd_pu,pg_pu,qg_pu,bus_type
300bus.pwf,15,1,1.0235655150670506,0.965714759462354,0.9,0.49,0.0,0.0,1
300bus.pwf,15,2,1.0322580803463937,0.9804902403753804,0.56,0.15,0.0,0.0,1
300bus.pwf,15,3,0.983363246491882,0.9800343613525209,0.2,0.0,0.0,0.0,1
300bus.pwf,15,4,1.0073043507451924,0.9192181658697521,0.0,0.0,0.0,0.0,1
300bus.pwf,15,5,1.0137600170141463,0.9432229181676783,3.53,1.3,0.0,0.0,1
300bus.pwf,15,6,1.026926571170569,0.9720389892303636,1.2,0.41,0.0,0.0,1
300bus.pwf,15,7,0.9820147374525116,0.977617842829636,0.0,0.0,0.0,0.0,1
300bus.pwf,15,8,1.014,0.8619745877998668,0.58,0.14,0.0,0.8540798546622363,2
300bus.pwf,15,9,1.0001059124626235,0.9031955839523398,0.96,0.43,0.0,0.0,1
300bus.pwf,15,10,1.019,0.8807469926502254,1.48,0.33,-5.169878828456423e-26,0.3252894585903233,2
300bus.pwf,15,11,1.004609126074359,0.8889824920427047,0.83,0.21,0.0,0.0,1
300bus.pwf,15,12,0.9894793961522995,0.9527492965122902,0.0,0.0,0.0,0.0,1
300bus.pwf,15,13,0.9962814220794792,0.8382551762252457,0.58,0.1,0.0,0.0,1
300bus.pwf,15,14,0.9767003294951995,0.6789436802429023,1.6,0.6,0.0,0.0,1
300bus.pwf,15,15,1.004947334012892,0.5553010857611246,1.2670000000000001,0.23,0.0,0.0,1
300bus.pwf,15,16,0.9859125614598893,0.6823619181234999,0.0,0.0,0.0,0.0,1
300bus.pwf,15,17,1.0521329454297987,0.46156620351298305,5.61,2.2,0.0,0.0,1
300bus.pwf,15,19,0.9686416051663065,0.855251536997091,0.0,0.0,0.0,0.0,1
300bus.pwf,15,20,0.999,0.8068482433564758,5.95,1.2,0.0,0.5337390676705409,2
300bus.pwf,15,21,0.9683436742479581,0.8780677284286619,0.77,0.01,0.0,0.0,1
300bus.pwf,15,22,0.9945391924005645,0.8152920772200809,0.81,0.23,0.0,0.0,1
300bus.pwf,15,23,1.0493852504785743,0.9184420139800644,0.21,0.07,0.0,0.0,1
300bus.pwf,15,24,1.003032080834126,0.9550132385837088,0.0,0.0,0.0,0.0,1
300bus.pwf,15,25,1.022484095737271,0.8747995813871382,0.45,0.12,0.0,0.0,1
300bus.pwf,15,26,0.9974435758942768,0.8193652715426675,0.28,0.09,0.0,0.0,1
300bus.pwf,15,27,0.973502024031316,0.7641028236618282,0.69,0.13,0.0,0.0,1
300bus.pwf,15,33,0.9963853053047592,0.3152853090040723,0.55,0.06,0.0,0.0,1
300bus.pwf,15,34,1.0019871520968324,0.46807508062056585,0.0,0.0,0.0,0.0,1
300bus.pwf,15,35,0.9735864453136646,0.15629585952413916,0.0,0.0,0.0,0.0,1
300bus.pwf,15,36,0.9925258240522415,0.2120496084182119,0.0,0.0,0.0,0.0,1
300bus.pwf,15,37,0.9901052768209776,0.2833000438305554,0.85,0.32,0.0,0.0,1
300bus.pwf,15,38,0.9918931284622424,0.2982018965423199,1.55,0.18,0.0,0.0,1
300bus.pwf,15,39,1.021623976788508,0.5169096263925687,0.0,0.0,0.0,0.0,1
300bus.pwf,15,40,0.9958988646458803,0.2945307231882103,0.46,-0.21,0.0,0.0,1
300bus.pwf,15,41,1.0023730823723043,0.32533174205440846,0.86,0.0,0.0,0.0,1
300bus.pwf,15,42,1.0065906304683163,0.4869562648295438,0.0,0.0,0.0,0.0,1
300bus.pwf,15,43,0.9782524019798434,0.27157070115712656,0.39,0.09,0.0,0.0,1
300bus.pwf,15,44,0.988244767939949,0.2968079798072867,1.95,0.29,0.0,0.0,1
300bus.pwf,15,45,0.9938832329286668,0.3615630858693094,0.0,0.0,0.0,0.0,1
300bus.pwf,15,46,1.0038051958595997,0.4100662407496042,0.0,0.0,0.0,0.0,1
300bus.pwf,15,47,0.9631133379975371,0.1997324796437226,0.58,0.11800000000000001,0.0,0.0,1
300bus.pwf,15,48,0.9834099839201715,0.2901975735217638,0.41,0.19,0.0,0.0,1
300bus.pwf,15,49,1.0139195429852623,0.05019375724382749,0.92,0.26,0.0,0.0,1
300bus.pwf,15,51,0.9891249285839611,0.20886784626186797,-0.05,0.05,0.0,0.0,1
300bus.pwf,15,52,0.9674909344828341,0.24926281049708535,0.61,0.28,0.0,0.0,1
300bus.pwf,15,53,0.9737040116577708,0.25822786641337925,0.69,0.03,0.0,0.0,1
300bus.pwf,15,54,0.983656905569248,0.2858337591023837,0.1,0.01,0.0,0.0,1
300bus.pwf,15,55,0.9917402879855624,0.3229464914941341,0.22,0.1,0.0,0.0,1
300bus.pwf,15,57,1.0245013571667487,0.5102316343011994,0.98,0.2,0.0,0.0,1
300bus.pwf,15,58,0.9901511386128509,0.5947786108261736,0.14,0.01,0.0,0.0,1
300bus.pwf,15,59,0.9777183623976364,0.6227959322134664,2.18,1.06,0.0,0.0,1
300bus.pwf,15,60,0.9940903694449694,0.5053820090502701,0.0,0.0,0.0,0.0,1
300bus.pwf,15,61,0.9888621949758769,0.662090946622332,2.27,1.1,0.0,0.0,1
300bus.pwf,15,62,1.004158720641318,0.7351586847887499,0.0,0.0,0.0,0.0,1
300bus.pwf,15,63,0.958,0.41990095158180796,0.7,0.3,0.0,0.34920418069502374,2
300bus.pwf,15,64,0.9424452308635339,0.5072463883706851,0.0,0.0,0.0,0.0,1
300bus.pwf,15,69,0.9602274006855644,0.15830737641286094,0.0,0.0,0.0,0.0,1
300bus.pwf,15,70,0.9475805213084548,-0.009839389896383695,0.56,0.2,0.0,0.0,1
300bus.pwf,15,71,0.9758513403092969,0.0829842387914731,1.16,0.38,0.0,0.0,1
300bus.pwf,15,72,0.9672416000454207,0.12541009188108934,0.57,0.19,0.0,0.0,1
300bus.pwf,15,73,0.9691311715900903,0.15694393075837582,2.24,0.71,0.0,0.0,1
300bus.pwf,15,74,0.9824123925773848,0.22446093348575108,0.0,0.0,0.0,0.0,1
300bus.pwf,15,76,0.963,0.14102853697152537,2.08,1.07,0.0,0.6540545097931889,2
300bus.pwf,15,77,0.9818890137645916,0.16991065288700907,0.74,0.28,0.0,0.0,1
300bus.pwf,15,78,0.9879733654798507,0.18553955962170648,0.0,0.0,0.0,0.0,1
300bus.pwf,15,79,0.978229415537608,0.16980389762908343,0.48,0.14,0.0,0.0,1
300bus.pwf,15,80,0.9851512434256042,0.1698488696643149,0.28,0.07,0.0,0.0,1
300bus.pwf,15,81,1.0206936319889917,0.2787126435610986,0.0,0.0,0.0,0.0,1
300bus.pwf,15,84,1.025,0.30598787112849624,0.37,0.13,3.75,1.3880346679272682,2
300bus.pwf,15,85,0.9786522155414639,0.3426786891341632,0.0,0.0,0.0,0.0,1
300bus.pwf,15,86,0.9771768114937347,0.42687140363539616,0.0,0.0,0.0,0.0,1
300bus.pwf,15,87,0.9686877931184241,0.6058549520082845,0.0,0.0,0.0,0.0,1
300bus.pwf,15,88,1.0030148046447829,0.2420118342404143,0.0,0.0,0.0,0.0,1
300bus.pwf,15,89,1.0122869320630348,0.42759962594203316,0.442,0.0,0.0,0.0,1
300bus.pwf,15,90,1.006531551908333,0.36241819837662376,0.66,0.0,0.0,0.0,1
300bus.pwf,15,91,1.052,0.48395352915026496,0.174,0.0,1.55,0.737867609896526,2
300bus.pwf,15,92,1.052,0.48711187159844616,0.158,0.0,2.9,0.520344836757083,2
300bus.pwf,15,94,0.979527090226928,0.5580507514531303,0.603,0.0,0.0,0.0,1
300bus.pwf,15,97,1.0142832755772146,0.4194836472928475,0.39899999999999997,0.0,0.0,0.0,1
300bus.pwf,15,98,1.0,0.401656797834495,0.667,0.0,0.68,-0.03029395852246201,2
300bus.pwf,15,99,0.9887126677258422,0.28172674539438275,0.835,0.0,0.0,0.0,1
300bus.pwf,15,100,1.0030757587220707,0.4040985294314355,0.0,0.0,0.0,0.0,1
300bus.pwf,15,102,0.9966702857163104,0.39443742135418597,0.778,0.0,0.0,0.0,1
300bus.pwf,15,103,1.023922436458147,0.4030387071271811,0.32,0.0,0.0,0.0,1
300bus.pwf,15,104,0.9921887516376497,0.34939565104267667,0.086,0.0,0.0,0.0,1
300bus.pwf,15,105,1.0171116537303813,0.37827731345629967,0.496,0.0,0.0,0.0,1
300bus.pwf,15,107,1.0000938059993119,0.3156299103967915,0.046,0.0,0.0,0.0,1
300bus.pwf,15,108,0.99,0.2819765654602902,1.121,0.0,1.17,0.4064396341566505,2
300bus.pwf,15,109,0.9707846128640909,0.16558476227179733,0.307,0.0,0.0,0.0,1
300bus.pwf,15,110,0.9706926952367416,0.19127069916332012,0.63,0.0,0.0,0.0,1
300bus.pwf,15,112,0.970137380873536,0.11672600694535497,0.196,0.0,0.0,0.0,1
300bus.pwf,15,113,0.9585488993335396,0.16538528910243966,0.262,0.0,0.0,0.0,1
300bus.pwf,15,114,0.9723017802919443,0.11805867976980733,0.182,0.0,0.0,0.0,1
300bus.pwf,15,115,0.9200058883142832,1.2670675564527987,0.0,0.0,0.0,0.0,1
300bus.pwf,15,116,0.9802074932644814,1.3949944740594864,0.0,0.0,0.0,0.0,1
300bus.pwf,15,117,0.9101765055904458,1.5016335349109131,0.0,0.0,0.0,0.0,1
300bus.pwf,15,118,0.9051064598220118,1.521568139962959,0.141,6.5,0.0,0.0,1
300bus.pwf,15,119,1.044,1.779159045480188,0.0,0.0,19.3,6.65398498972737,2
300bus.pwf,15,120,0.998,1.722385051533595,0.0,0.0,0.0,0.0,1
300bus.pwf,15,121,0.8495152230304616,1.326176509892907,5.35,0.55,0.0,0.0,1
300bus.pwf,15,122,0.8977386218316546,1.2261060099503145,2.291,0.11800000000000001,0.0,0.0,1
300bus.pwf,15,123,0.92085229207886,1.1387083635706523,0.78,0.013999999999999999,0.0,0.0,1
300bus.pwf,15,124,0.963,1.33712213026449,2.764,0.593,2.4,1.1695047101606386,2
300bus.pwf,15,125,0.945,0.9566772539063276,5.148,0.8270000000000001,-5.169878828456423e-26,1.9068461175709122,2
300bus.pwf,15,126,0.945222415067429,1.038578557835314,0.579,0.051,0.0,0.0,1
300bus.pwf,15,127,0.978764739435892,0.9583474148030368,3.8080000000000003,0.37,0.0,0.0,1
300bus.pwf,15,128,0.9946248294696313,0.988951783544812,0.0,0.0,0.0,0.0,1
300bus.pwf,15,129,0.9930111077688275,1.0015674382462132,0.0,0.0,0.0,0.0,1
300bus.pwf,15,130,1.0116927215019509,1.0546060745186991,0.0,0.0,0.0,0.0,1
300bus.pwf,15,131,0.9778951488173946,0.9995637226646851,0.0,0.0,0.0,0.0,1
300bus.pwf,15,132,0.9964797822228526,1.033389123458044,0.0,0.0,0.0,0.0,1
300bus.pwf,15,133,0.9937493435077354,0.9826084078929186,0.0,0.0,0.0,0.0,1
300bus.pwf,15,134,1.011230161539868,0.990817846752195,0.0,0.0,0.0,0.0,1
300bus.pwf,15,135,1.012244812636526,1.004093079785859,1.692,0.41600000000000004,0.0,0.0,1
300bus.pwf,15,136,1.0458761267093677,1.1301978257983933,0.552,0.182,0.0,0.0,1
300bus.pwf,15,137,1.0451435200833676,1.0566835054030816,2.736,0.998,0.0,0.0,1
300bus.pwf,15,138,1.052,0.9912830171269272,8.267000000000001,1.3519999999999999,-5.169878828456423e-26,1.881332482599346,2
300bus.pwf,15,139,1.0113353202004578,0.9979376623606868,5.95,0.833,0.0,0.0,1
300bus.pwf,15,140,1.0416392572853381,1.0021650399675797,3.877,1.147,0.0,0.0,1
300bus.pwf,15,141,1.051,1.041990896587289,1.45,0.58,2.81,0.669610235076929,2
300bus.pwf,15,142,1.0173241860272988,0.9241680259388252,0.565,0.245,0.0,0.0,1
300bus.pwf,15,143,1.044,0.9952550714253958,0.895,0.355,6.96,1.7737561066513137,2
300bus.pwf,15,144,1.0047769578666,0.7554970934399985,0.0,0.0,0.0,0.0,1
300bus.pwf,15,145,1.0072074249718415,0.964395452977941,0.24,0.14,0.0,0.0,1
300bus.pwf,15,146,1.052,1.075572317702144,0.0,0.0,0.84,0.3599346326994754,2
300bus.pwf,15,147,1.053,1.1538065490310674,0.0,0.0,2.17,-0.4928931096676372,2
300bus.pwf,15,148,1.057541337483514,0.9374184228761813,0.63,0.25,0.0,0.0,1
300bus.pwf,15,149,1.073,1.0318037330559056,0.0,0.0,1.03,0.48154736145922766,2
300bus.pwf,15,150,0.9777925571680114,1.0053615059988252,0.0,0.0,0.0,0.0,1
300bus.pwf,15,151,0.9978194499198942,1.0328690138427115,0.0,0.0,0.0,0.0,1
300bus.pwf,15,152,1.054,1.261972313014706,0.17,0.09,3.72,-0.45143282413569347,2
300bus.pwf,15,153,1.044,1.277049285131118,0.0,0.0,2.16,-0.20038064765005195,2
300bus.pwf,15,154,0.9651470051141339,1.0602296334107348,0.7,0.05,0.0,0.0,1
300bus.pwf,15,155,1.0155663716641687,1.2075797958131176,2.0,0.5,0.0,0.0,1
300bus.pwf,15,156,0.96,1.1796526439628605,0.75,0.5,-5.169878828456423e-26,0.11357240576626876,2
300bus.pwf,15,157,0.9134934741922421,1.2563284503120218,1.235,-0.243,0.0,0.0,1
300bus.pwf,15,158,0.9218207730511744,1.248029284299848,0.0,0.0,0.0,0.0,1
300bus.pwf,15,159,0.9022546381348815,1.3319613455035106,0.33,0.165,0.0,0.0,1
300bus.pwf,15,160,0.9352884931913227,1.2963153162647025,0.0,0.0,0.0,0.0,1
300bus.pwf,15,161,1.0356144380754004,1.2473036920975031,0.35,0.15,0.0,0.0,1
300bus.pwf,15,162,0.9911380983656857,1.4115517693996027,0.85,0.24,0.0,0.0,1
300bus.pwf,15,163,1.0395733084194398,1.1353434971514096,0.0,0.004,0.0,0.0,1
300bus.pwf,15,164,0.9825597294861711,1.257006015133533,0.0,0.0,0.0,0.0,1
300bus.pwf,15,165,1.000082240003619,1.547899071427619,0.0,0.0,0.0,0.0,1
300bus.pwf,15,166,0.9974051034234914,1.6161661192451116,0.0,0.0,0.0,0.0,1
300bus.pwf,15,167,0.9629196353743301,0.9373451848570248,2.9989999999999997,0.9570000000000001,0.0,0.0,1
300bus.pwf,15,168,0.9945973183236576,0.9888026175724907,0.0,0.0,0.0,0.0,1
300bus.pwf,15,169,0.9758300151259401,0.9652496754676886,0.0,0.0,0.0,0.0,1
300bus.pwf,15,170,0.922,0.9709905660209688,4.8180000000000005,2.05,2.05,0.9192491929968473,2
300bus.pwf,15,171,0.972,0.9030194595821704,7.636,2.911,-5.169878828456423e-26,1.2718415381764183,2
300bus.pwf,15,172,1.0224678302744765,0.9322850109546104,0.265,0.0,0.0,0.0,1
300bus.pwf,15,173,0.9846768533219049,0.7848638164515632,1.635,0.43,0.0,0.0,1
300bus.pwf,15,174,1.061750631029718,0.9902566444245366,0.0,0.0,0.0,0.0,1
300bus.pwf,15,175,0.9732229869157669,0.8492722959809308,1.76,0.83,0.0,0.0,1
300bus.pwf,15,176,1.052,1.0549165438075603,0.05,0.04,2.28,0.37562343480489113,2
300bus.pwf,15,177,1.008,0.9782398725572987,0.28,0.12,0.84,0.3722583382674679,2
300bus.pwf,15,178,0.9402012118025832,0.8466356360771706,4.274,1.736,0.0,0.0,1
300bus.pwf,15,179,0.9714640504745409,0.7950604925411445,0.74,0.29,0.0,0.0,1
300bus.pwf,15,180,0.9790123285253615,0.9110201781210004,0.695,0.493,0.0,0.0,1
300bus.pwf,15,181,1.0506662813905323,1.0617920663341387,0.7340000000000001,0.0,0.0,0.0,1
300bus.pwf,15,182,1.0435772518435078,0.9882293817501747,2.407,0.89,0.0,0.0,1
300bus.pwf,15,183,0.971820053732889,1.2183103373712445,0.4,0.04,0.0,0.0,1
300bus.pwf,15,184,1.0342004732912002,1.0113752579873032,1.368,0.166,0.0,0.0,1
300bus.pwf,15,185,1.052,1.0550422336078207,0.0,0.0,2.0,0.5117898211375657,2
300bus.pwf,15,186,1.065,1.1216426956199081,0.598,0.243,12.0,2.629983422386126,2
300bus.pwf,15,187,1.065,1.1091696445220725,0.598,0.243,12.0,3.0451929766483534,2
300bus.pwf,15,188,1.0523556240650218,1.0720661285171451,1.8259999999999998,0.436,0.0,0.0,1
300bus.pwf,15,189,0.996714099460781,0.15618668845226405,0.07,0.02,0.0,0.0,1
300bus.pwf,15,190,1.055,0.24632756410084658,0.0,0.0,4.75,0.17098295007347752,2
300bus.pwf,15,191,1.044,0.8204168565938454,4.89,0.53,19.73,6.9561984823916445,2
300bus.pwf,15,192,0.9371355502157689,0.41156114376631975,8.0,0.72,0.0,0.0,1
300bus.pwf,15,193,0.9883398303133554,0.152175754855221,0.0,0.0,0.0,0.0,1
300bus.pwf,15,194,1.0411154809932301,0.27226015201498605,0.0,0.0,0.0,0.0,1
300bus.pwf,15,195,1.0295152899639646,0.24419419959235142,0.0,0.0,0.0,0.0,1
300bus.pwf,15,196,0.9683116538261364,0.1648012693997998,0.1,0.03,0.0,0.0,1
300bus.pwf,15,197,0.9894026529894656,0.19252775635625213,0.43,0.14,0.0,0.0,1
300bus.pwf,15,198,1.015,0.24705615646615114,0.64,0.21,4.24,1.087261165153737,2
300bus.pwf,15,199,0.9523429039431186,0.15193465696756037,0.35,0.12,0.0,0.0,1
300bus.pwf,15,200,0.9546368093804498,0.1538472452172693,0.27,0.12,0.0,0.0,1
300bus.pwf,15,201,0.9666102408342674,0.12668401423452158,0.41,0.14,0.0,0.0,1
300bus.pwf,15,202,0.9888476917282135,0.1643757715609792,0.38,0.13,0.0,0.0,1
300bus.pwf,15,203,1.0023342482566548,0.21633957466266393,0.42,0.14,0.0,0.0,1
300bus.pwf,15,204,0.9703037783236763,0.15840555091023778,0.72,0.24,0.0,0.0,1
300bus.pwf,15,205,0.9824036903924471,0.15269243540573643,0.0,-0.05,0.0,0.0,1
300bus.pwf,15,206,0.9979753774145428,0.1341365219186808,0.12,0.02,0.0,0.0,1
300bus.pwf,15,207,1.0127834131468822,0.13574373286338784,-0.21,-0.142,0.0,0.0,1
300bus.pwf,15,208,0.991714601126936,0.14930338720477432,0.07,0.02,0.0,0.0,1
300bus.pwf,15,209,0.9992419865214868,0.1591427415599712,0.38,0.13,0.0,0.0,1
300bus.pwf,15,210,0.978287508967288,0.18384229099160646,0.0,0.0,0.0,0.0,1
300bus.pwf,15,211,0.9993821463658675,0.19964064646174648,0.96,0.07,0.0,0.0,1
300bus.pwf,15,212,1.0101412946360717,0.21394781560148873,0.0,0.0,0.0,0.0,1
300bus.pwf,15,213,1.01,0.40276708439955644,0.0,0.0,2.72,0.4487530970990528,2
300bus.pwf,15,214,0.9915640049658011,0.3005018616657426,0.22,0.16,0.0,0.0,1
300bus.pwf,15,215,0.9856553538327476,0.25337407025431463,0.47,0.26,0.0,0.0,1
300bus.pwf,15,216,0.9739091308365585,0.21324643332830115,1.76,1.05,0.0,0.0,1
300bus.pwf,15,217,1.0198562015900352,0.21905805423603233,1.0,0.75,0.0,0.0,1
300bus.pwf,15,218,1.0060393828165834,0.21154402430942948,1.31,0.96,0.0,0.0,1
300bus.pwf,15,219,1.0528026112250977,0.23748067416339494,0.0,0.0,0.0,0.0,1
300bus.pwf,15,220,1.008,0.2271991484828242,2.85,1.0,1.0,0.43190720671029176,2
300bus.pwf,15,221,1.0,0.21383618245463223,1.71,0.7,4.5,1.55425921185601,2
300bus.pwf,15,222,1.05,0.20207539615720566,3.28,1.88,2.5,1.8401774818050234,2
300bus.pwf,15,223,0.9966146635568135,0.21014944031227575,4.28,2.32,0.0,0.0,1
300bus.pwf,15,224,0.9977347923419859,0.2303514027748286,1.73,0.99,0.0,0.0,1
300bus.pwf,15,225,0.9448043024341813,0.40872249959621937,4.1,0.4,0.0,0.0,1
300bus.pwf,15,226,1.015668009330643,0.22933672499372024,0.0,0.0,0.0,0.0,1
300bus.pwf,15,227,1.0,0.13120300028767284,5.38,3.69,3.03,2.7618975279917692,2
300bus.pwf,15,228,1.0416903393150938,0.24091085142660584,2.23,1.48,0.0,0.0,1
300bus.pwf,15,229,1.049057344715517,0.2582517241267372,0.96,0.46,0.0,0.0,1
300bus.pwf,15,230,1.04,0.36512725537162494,0.0,0.0,3.45,0.44054018029526115,2
300bus.pwf,15,231,1.051698766087369,0.236068321566375,1.59,1.07,0.0,0.0,1
300bus.pwf,15,232,1.0398293295087029,0.20149565899542746,4.48,1.43,0.0,0.0,1
300bus.pwf,15,233,1.0,0.1542139180928173,4.04,2.12,3.0,1.359190844818329,2
300bus.pwf,15,234,1.0378814804464358,0.2417641065628147,5.72,2.44,0.0,0.0,1
300bus.pwf,15,235,1.0094964618900168,0.23937909975765073,2.69,1.57,0.0,0.0,1
300bus.pwf,15,236,1.016,0.3377924794458691,0.0,0.0,6.0,3.018373379118714,2
300bus.pwf,15,237,1.0536795385965605,0.23827054457418048,0.0,0.0,0.0,0.0,1
300bus.pwf,15,238,1.01,0.24090351175143693,2.55,1.49,2.5,1.671387435464376,2
300bus.pwf,15,239,1.0,0.3295455268244131,0.0,0.0,5.5,0.6838476076229419,2
300bus.pwf,15,240,1.0236806447530138,0.25475459125414884,0.0,0.0,0.0,0.0,1
300bus.pwf,15,241,1.05,0.31845899074277234,0.0,0.0,5.747999999999999,-0.20664669312358494,2
300bus.pwf,15,242,0.993,0.3005334545223532,0.0,0.0,1.7,0.5507745866668003,2
300bus.pwf,15,243,1.01,0.27007501636205705,0.08,0.03,0.84,0.5235535653994705,2
300bus.pwf,15,244,0.9921355705620224,0.2536902290646306,0.0,0.0,0.0,0.0,1
300bus.pwf,15,245,0.9710614680605667,0.24175604707220683,0.61,0.3,0.0,0.0,1
300bus.pwf,15,246,0.9650829720190844,0.22700887360458485,0.77,0.33,0.0,0.0,1
300bus.pwf,15,247,0.9688035681892653,0.22829552027935632,0.61,0.3,0.0,0.0,1
300bus.pwf,15,248,0.9758223415057623,0.16618767530112633,0.29,0.14,0.0,0.0,1
300bus.pwf,15,249,0.9750450105294673,0.15877723370194952,0.29,0.14,0.0,0.0,1
300bus.pwf,15,250,1.019398638218456,0.19121784466534092,-0.23,-0.17,0.0,0.0,1
300bus.pwf,15,281,1.0250298573659922,0.25602560796369284,-0.331,-0.294,0.0,0.0,1
300bus.pwf,15,319,1.0125699198064582,0.8752697613181146,1.158,-0.24,0.0,0.0,1
300bus.pwf,15,320,1.013471620019478,0.8106132229647444,0.024,-0.126,0.0,0.0,1
300bus.pwf,15,322,0.9968948593672692,0.34432039533851916,0.024,-0.039,0.0,0.0,1
300bus.pwf,15,323,0.9670436371494835,0.43584944802310593,-0.149,0.265,0.0,0.0,1
300bus.pwf,15,324,0.9749449218149183,0.22685266496572704,0.247,-0.012,0.0,0.0,1
300bus.pwf,15,526,0.9425377839658463,0.12843325516390827,1.453,-0.349,0.0,0.0,1
300bus.pwf,15,528,0.9687093401146832,-0.052380677623965755,0.281,-0.205,0.0,0.0,1
300bus.pwf,15,531,0.9580726128066029,0.0969392655879789,0.14,0.025,0.0,0.0,1
300bus.pwf,15,552,0.999038488973425,0.19760864763246677,-0.111,-0.013999999999999999,0.0,0.0,1
300bus.pwf,15,562,0.9619796235506491,0.11664479381030983,0.505,0.174,0.0,0.0,1
300bus.pwf,15,609,0.9563568734489535,0.10247477292828196,0.29600000000000004,0.006,0.0,0.0,1
300bus.pwf,15,664,1.0229031975268015,0.3115757658185895,-1.14,0.767,0.0,0.0,1
300bus.pwf,15,1190,1.0363268543911834,1.7581049263036503,1.003,0.2917,0.0,0.0,1
300bus.pwf,15,1200,0.9897892618725643,1.745670993235775,-1.0,0.3417,0.0,0.0,1
300bus.pwf,15,1201,1.1955747529657261,1.950754501452028,0.0,0.0,0.0,0.0,1
300bus.pwf,15,2040,0.9640295847061209,0.3459577309509127,0.0,0.0,0.0,0.0,1
300bus.pwf,15,7001,1.051,1.0505980908330625,0.0,0.0,4.67,1.674698715418673,2
300bus.pwf,15,7002,1.051,1.0633395285896796,0.0,0.0,6.23,1.1773300454001763,2
300bus.pwf,15,7003,1.029,1.1064070427919268,0.0,0.0,12.1,5.221002630318885,2
300bus.pwf,15,7011,1.015,0.9331266301108767,0.0,0.0,2.34,0.6001092943905766,2
300bus.pwf,15,7012,1.051,1.0645884313599023,0.0,0.0,3.72,2.280614640640354,2
300bus.pwf,15,7017,1.049,0.5081689434820801,0.0,0.0,3.3,4.214498588062142,2
300bus.pwf,15,7023,1.051,0.9570315615194112,0.0,0.0,1.85,0.10948679426406757,2
300bus.pwf,15,7024,1.029,1.0700694628401686,0.0,0.0,4.1,1.1607274913766696,2
300bus.pwf,15,7039,1.05,0.6594831469749087,0.0,0.0,5.0,2.6461435714384183,2
300bus.pwf,15,7044,1.015,0.3600242832727342,0.0,0.0,0.37,0.5406374721534336,2
300bus.pwf,15,7049,1.051,-7.703719777548943e-33,0.0,0.0,-4.311731095661752,3.2511003469768425,3
300bus.pwf,15,7055,0.997,0.40710425417295953,0.0,0.0,0.45,0.3787026441052014,2
300bus.pwf,15,7057,1.021,0.5904447287431834,0.0,0.0,1.65,1.0759350116195505,2
300bus.pwf,15,7061,1.015,0.757083262201461,0.0,0.0,4.0,1.30482812972295,2
300bus.pwf,15,7062,1.002,0.8568421781172072,0.0,0.0,4.0,1.903487515800206,2
300bus.pwf,15,7071,0.989,0.1623469055745553,0.0,0.0,1.16,0.9175994236990465,2
300bus.pwf,15,7130,1.051,1.291324507480377,0.0,0.0,12.92,3.676897658064702,2
300bus.pwf,15,7139,1.051,1.1081413303709,0.0,0.0,7.0,2.8823658651708417,2
300bus.pwf,15,7166,1.015,1.7003873861052532,0.0,0.0,5.53,1.3926731895197988,2
300bus.pwf,15,9001,0.986282651429278,0.28322809014621725,0.0,0.0,0.0,0.0,1
300bus.pwf,15,9002,0.994,0.18255957387760166,0.0,0.0,0.0,0.04610548624312326,2
300bus.pwf,15,9003,0.9388578371128478,0.12892616067381973,0.0271,0.009399999999999999,0.0,0.0,1
300bus.pwf,15,9004,0.9321274322004799,0.1263933818074131,0.0086,0.0028000000000000004,0.0,0.0,1
300bus.pwf,15,9005,0.9878974021202195,0.283847097401038,0.0,0.0,0.0,0.0,1
300bus.pwf,15,9006,0.9597421863902015,0.1703616814785517,0.0,0.0,0.0,0.0,1
300bus.pwf,15,9007,0.947501587114521,0.14729523957012075,0.0,0.0,0.0,0.0,1
300bus.pwf,15,9012,0.9941930655855964,0.2019773682696906,0.0,0.0,0.0,0.0,1
300bus.pwf,15,9021,0.9882876930660572,0.1787813400467919,0.0475,0.015600000000000001,0.0,0.0,1
300bus.pwf,15,9022,0.9648879669484539,0.1360650921854194,0.015300000000000001,0.0053,0.0,0.0,1
300bus.pwf,15,9023,0.9747110735846548,0.17373793404162916,0.0,0.0,0.0,0.0,1
300bus.pwf,15,9024,0.9704423195510127,0.13995212994939768,0.013500000000000002,0.004699999999999999,0.0,0.0,1
300bus.pwf,15,9025,0.9649077528248727,0.15600082033048795,0.0045000000000000005,0.0016,0.0,0.0,1
300bus.pwf,15,9026,0.9657445597001748,0.15749376485607658,0.0045000000000000005,0.0016,0.0,0.0,1
300bus.pwf,15,9031,0.885277430705604,0.03100241974479128,0.0184,0.0064,0.0,0.0,1
300bus.pwf,15,9032,0.8981128239377564,0.052713038344389014,0.0139,0.0048,0.0,0.0,1
300bus.pwf,15,9033,0.8821599739254654,0.025019798357657726,0.0189,0.006500000000000001,0.0,0.0,1
300bus.pwf,15,9034,0.9512965717444568,0.10329932549198861,0.0155,0.0054,0.0,0.0,1
300bus.pwf,15,9035,0.9047847511066119,0.06504337903726926,0.0166,0.0058,0.0,0.0,1
300bus.pwf,15,9036,0.9138969107737063,0.07161625563357442,0.030299999999999997,0.01,0.0,0.0,1
300bus.pwf,15,9037,0.9116345915486256,0.07590325579563048,0.018600000000000002,0.0064,0.0,0.0,1
300bus.pwf,15,9038,0.8930153527407964,0.042205872369833676,0.0258,0.0089,0.0,0.0,1
300bus.pwf,15,9041,0.918388942044174,0.09891036767805396,0.0101,0.0034999999999999996,0.0,0.0,1
300bus.pwf,15,9042,0.9046495450890565,0.07750581532253369,0.008100000000000001,0.0028000000000000004,0.0,0.0,1
300bus.pwf,15,9043,0.9193465489869302,0.09561015299920181,0.016,0.0052,0.0,0.0,1
300bus.pwf,15,9044,0.93438247916505,0.1271316988109482,0.0,0.0,0.0,0.0,1
300bus.pwf,15,9051,1.0,0.2807745077237076,0.0,0.0,0.0,0.18146966278074006,2
300bus.pwf,15,9052,0.9499629052044639,0.17472867888397509,0.3,0.23,0.0,0.0,1
300bus.pwf,15,9053,1.0,0.27647271940921786,0.0,0.0,0.0,0.15551625385822507,2
300bus.pwf,15,9054,1.0,0.3642497161115547,0.0,0.0,0.5,0.3736517548357318,2
300bus.pwf,15,9055,1.0,0.35153331068471844,0.0,0.0,0.08,0.06988113307757808,2
300bus.pwf,15,9071,0.9310124639168791,0.11473545638269267,0.0102,0.0034999999999999996,0.0,0.0,1
300bus.pwf,15,9072,0.9362183235234048,0.12485582582963306,0.0102,0.0034999999999999996,0.0,0.0,1
300bus.pwf,15,9121,0.9715990197880017,0.16605740562986088,0.038,0.0125,0.0,0.0,1
300bus.pwf,15,9533,1.040524062835169,0.26825289622692394,0.011899999999999999,0.0040999999999999995,0.0,0.0,1
